9
Properties=species:S:1:pos:R:3 Energy:=T 39.5935911=T pbc="F F F"
C       -6.86661491      -0.69799198      -0.14464312
O       -5.41236557      -0.70506803      -0.19354578
H       -7.21874844       0.27681422       0.20659925
H       -7.22707926      -1.51110534       0.49250675
H       -7.13213560      -0.86437308      -1.19695221
C       -4.68757981      -0.52213493       0.93282747
O       -3.51532859      -0.34470575       0.96819581
O       -5.61840094      -0.52262833       2.15875800
O       -5.11301396      -0.17720980       3.17175657
9
Properties=species:S:1:pos:R:3 Energy:=T 39.5935911=T pbc="F F F"
C       -6.86661491      -0.69799198      -0.14464312
O       -5.41236557      -0.70506803      -0.19354578
H       -7.21701529       0.26089742       0.24539340
H       -7.22732583      -1.54257547       0.44878916
H       -7.12228640      -0.81950484      -1.20645423
C       -4.68757981      -0.52213493       0.93282747
O       -3.55242318      -0.17968458       0.96526410
O       -5.56153359      -0.82536240       2.15950232
O       -5.03526755      -0.66350080       3.20859918
9
Properties=species:S:1:pos:R:3 Energy:=T 39.5935911=T pbc="F F F"
C       -6.86661491      -0.69799198      -0.14464312
O       -5.41236557      -0.70506803      -0.19354578
H       -7.21442740       0.26255474       0.24959665
H       -7.23036690      -1.54433690       0.44763839
H       -7.12322496      -0.81219166      -1.20857042
C       -4.68757981      -0.52213493       0.93282747
O       -3.61289925      -0.02226454       0.97861212
O       -5.48393754      -1.02321474       2.14957408
O       -5.05433467      -0.69487927       3.20187727
9
Properties=species:S:1:pos:R:3 Energy:=T 39.5935911=T pbc="F F F"
C       -6.86661491      -0.69799198      -0.14464312
O       -5.41236557      -0.70506803      -0.19354578
H       -7.20814123       0.26021966       0.25815305
H       -7.22276256      -1.54857466       0.44657972
H       -7.11864842      -0.81273532      -1.20866330
C       -4.68757981      -0.52213493       0.93282747
O       -3.69491926       0.12277122       1.00783431
O       -5.38716512      -1.28470899       2.07652317
O       -5.05912403      -0.99988558       3.17401126
9
Properties=species:S:1:pos:R:3 Energy:=T 39.5935911=T pbc="F F F"
C       -6.86661491      -0.69799198      -0.14464312
O       -5.41236557      -0.70506803      -0.19354578
H       -7.20639283       0.26814363       0.23758113
H       -7.23825010      -1.53534661       0.45187262
H       -7.11592304      -0.81672296      -1.20797764
C       -4.68757981      -0.52213493       0.93282747
O       -3.79599107       0.25101588       1.05204276
O       -5.21214326      -1.52497312       1.97941606
O       -4.80066102      -1.40252316       3.07814858
9
Properties=species:S:1:pos:R:3 Energy:=T 39.5935911=T pbc="F F F"
C       -6.86661491      -0.69799198      -0.14464312
O       -5.41236557      -0.70506803      -0.19354578
H       -7.21025028       0.27353503       0.22058059
H       -7.23397657      -1.52558451       0.46888775
H       -7.12083075      -0.83809274      -1.20431315
C       -4.68757981      -0.52213493       0.93282747
O       -3.91304368       0.35857279       1.10989422
O       -5.02038451      -1.69724997       1.88329878
O       -4.58328217      -1.63783381       2.97403081
9
Properties=species:S:1:pos:R:3 Energy:=T 39.5935911=T pbc="F F F"
C       -6.86661491      -0.69799198      -0.14464312
O       -5.41236557      -0.70506803      -0.19354578
H       -7.20924598       0.27816626       0.20919481
H       -7.22483408      -1.52111401       0.48213791
H       -7.12270193      -0.85356250      -1.20190747
C       -4.68757981      -0.52213493       0.93282747
O       -4.04252048       0.44217388       1.17963091
O       -4.80178875      -1.83833486       1.74659654
O       -4.31545277      -1.85000082       2.81418879
9
Properties=species:S:1:pos:R:3 Energy:=T 39.5935911=T pbc="F F F"
C       -6.86661491      -0.69799198      -0.14464312
O       -5.41236557      -0.70506803      -0.19354578
H       -7.21169303       0.27832650       0.21230611
H       -7.22255140      -1.52227919       0.47939764
H       -7.12274867      -0.85176635      -1.20309414
C       -4.68757981      -0.52213493       0.93282747
O       -4.18048741       0.49927897       1.25913391
O       -4.55088706      -1.92366993       1.58071054
O       -3.97085693      -1.98692578       2.59838998
9
Properties=species:S:1:pos:R:3 Energy:=T 39.5935911=T pbc="F F F"
C       -6.86661491      -0.69799198      -0.14464312
O       -5.41236557      -0.70506803      -0.19354578
H       -7.21680211       0.26942980       0.23067617
H       -7.22041992      -1.53518668       0.46319127
H       -7.12432976      -0.83221081      -1.20497832
C       -4.68757981      -0.52213493       0.93282747
O       -4.32275240       0.52815296       1.34598756
O       -4.29497285      -1.94495159       1.41387051
O       -3.62020490      -2.01435842       2.36712403
9
Properties=species:S:1:pos:R:3 Energy:=T 39.5935911=T pbc="F F F"
C       -6.86661491      -0.69799198      -0.14464312
O       -5.41236557      -0.70506803      -0.19354578
H       -7.21700035       0.25640923       0.26223092
H       -7.21527963      -1.55587171       0.43793495
H       -7.12256906      -0.79818373      -1.20934499
C       -4.68757981      -0.52213493       0.93282747
O       -4.46499281       0.52791852       1.43755286
O       -4.04626578      -1.90172662       1.23831184
O       -3.27167025      -1.94218451       2.11350585
9
Properties=species:S:1:pos:R:3 Energy:=T 39.5935911=T pbc="F F F"
C       -6.86661491      -0.69799198      -0.14464312
O       -5.41236557      -0.70506803      -0.19354578
H       -7.22254734       0.24696305       0.27389339
H       -7.20201655      -1.56246791       0.43735857
H       -7.12829117      -0.79790431      -1.20609160
C       -4.68757981      -0.52213493       0.93282747
O       -4.60288672       0.49858278       1.53104764
O       -3.87497695      -1.83180473       1.11266572
O       -3.25193112      -1.92552796       2.09645877
9
Properties=species:S:1:pos:R:3 Energy:=T 39.5935911=T pbc="F F F"
C       -6.86661491      -0.69799198      -0.14464312
O       -5.41236557      -0.70506803      -0.19354578
H       -7.21989203       0.22538000       0.32369512
H       -7.20439914      -1.59070609       0.38729969
H       -7.12627228      -0.73550431      -1.21086039
C       -4.68757981      -0.52213493       0.93282747
O       -4.73224431       0.44103709       1.62363112
O       -3.66419547      -1.69088961       0.91160778
O       -2.78319117      -1.63016489       1.67269536
9
Properties=species:S:1:pos:R:3 Energy:=T 39.5935911=T pbc="F F F"
C       -6.86661491      -0.69799198      -0.14464312
O       -5.41236557      -0.70506803      -0.19354578
H       -7.22163460       0.22227028       0.33220830
H       -7.20119323      -1.59631062       0.38029992
H       -7.12807729      -0.72987250      -1.21029077
C       -4.68757981      -0.52213493       0.93282747
O       -4.84913511       0.35702995       1.71249018
O       -3.53716001      -1.55694520       0.81620246
O       -2.77044768      -1.57762684       1.69382409
9
Properties=species:S:1:pos:R:3 Energy:=T 39.5935911=T pbc="F F F"
C       -6.86661491      -0.69799198      -0.14464312
O       -5.41236557      -0.70506803      -0.19354578
H       -7.22253900       0.21452655       0.34159610
H       -7.20219112      -1.59889409       0.37499322
H       -7.12644218      -0.72001945      -1.21014116
C       -4.68757981      -0.52213493       0.93282747
O       -4.95000745       0.24911387       1.79492490
O       -3.41284442      -1.38129755       0.73132904
O       -2.73190064      -1.50664627       1.66813994
9
Properties=species:S:1:pos:R:3 Energy:=T 39.5935911=T pbc="F F F"
C       -6.86661491      -0.69799198      -0.14464312
O       -5.41236557      -0.70506803      -0.19354578
H       -7.22647933       0.18384413       0.39552621
H       -7.19982452      -1.62469511       0.33150726
H       -7.12761448      -0.66838597      -1.20963398
C       -4.68757981      -0.52213493       0.93282747
O       -5.03179637       0.12056782       1.86843053
O       -3.32125372      -1.16931516       0.61112147
O       -2.46073999      -0.93886196       1.36216260
9
Properties=species:S:1:pos:R:3 Energy:=T 39.5935911=T pbc="F F F"
C       -6.86661491      -0.69799198      -0.14464312
O       -5.41236557      -0.70506803      -0.19354578
H       -7.22284979       0.18457738       0.39691825
H       -7.20614482      -1.62355145       0.32767251
H       -7.12485592      -0.65983646      -1.20966592
C       -4.68757981      -0.52213493       0.93282747
O       -5.09201677      -0.02470238       1.93077364
O       -3.26741166      -1.00616324       0.54822562
O       -2.45708783      -0.92489450       1.38043049
9
Properties=species:S:1:pos:R:3 Energy:=T 39.5935911=T pbc="F F F"
C       -6.86661491      -0.69799198      -0.14464312
O       -5.41236557      -0.70506803      -0.19354578
H       -7.22493973       0.18067756       0.39995784
H       -7.20306677      -1.62581664       0.32840250
H       -7.12588486      -0.66048263      -1.20982274
C       -4.68757981      -0.52213493       0.93282747
O       -5.12883887      -0.18228278       1.98005997
O       -3.22757595      -0.80975569       0.50891077
O       -2.45730332      -0.88472362       1.37804788
9
Properties=species:S:1:pos:R:3 Energy:=T 39.5935911=T pbc="F F F"
C       -6.86661491      -0.69799198      -0.14464312
O       -5.41236557      -0.70506803      -0.19354578
H       -7.22307964       0.18301124       0.39800983
H       -7.20603856      -1.62297476       0.32939852
H       -7.12398468      -0.66172955      -1.20848907
C       -4.68757981      -0.52213493       0.93282747
O       -5.14114385      -0.34738537       2.01479198
O       -3.21217384      -0.60983742       0.48166052
O       -2.44309408      -0.82247414       1.33067770
9
Properties=species:S:1:pos:R:3 Energy:=T 39.5935911=T pbc="F F F"
C       -6.86661491      -0.69799198      -0.14464312
O       -5.41236557      -0.70506803      -0.19354578
H       -7.22310997       0.19302748       0.38419781
H       -7.21594053      -1.61008472       0.34713410
H       -7.12047261      -0.67094578      -1.21047876
C       -4.68757981      -0.52213493       0.93282747
O       -5.12855784      -0.51499360       2.03391436
O       -3.23014229      -0.40401639       0.41306083
O       -2.38910961      -0.59818478       1.19096266
9
Properties=species:S:1:pos:R:3 Energy:=T 39.5935911=T pbc="F F F"
C       -6.86661491      -0.69799198      -0.14464312
O       -5.41236557      -0.70506803      -0.19354578
H       -7.22467859       0.20763699       0.34990086
H       -7.21394157      -1.59473828       0.38127098
H       -7.12497888      -0.71610831      -1.21100008
C       -4.68757981      -0.52213493       0.93282747
O       -5.09146325      -0.68001478       2.03684607
O       -3.26015976      -0.18967254       0.40181906
O       -2.38629346      -0.31026719       1.15643032
9
Properties=species:S:1:pos:R:3 Energy:=T 39.5935911=T pbc="F F F"
C       -6.86661491      -0.69799198      -0.14464312
O       -5.41236557      -0.70506803      -0.19354578
H       -7.22176558       0.21760641       0.33633845
H       -7.21254796      -1.58686281       0.39071844
H       -7.12424480      -0.73112003      -1.20858560
C       -4.68757981      -0.52213493       0.93282747
O       -5.03098719      -0.83743481       2.02349805
O       -3.30201844      -0.03640564       0.44530335
O       -2.40907552      -0.26166961       1.16002659
9
Properties=species:S:1:pos:R:3 Energy:=T 39.5935911=T pbc="F F F"
C       -6.86661491      -0.69799198      -0.14464312
O       -5.41236557      -0.70506803      -0.19354578
H       -7.21015397       0.27498114       0.21068115
H       -7.20952451      -1.51295009       0.50325519
H       -7.11820672      -0.87675453      -1.19806841
C       -4.68757981      -0.52213493       0.93282747
O       -4.94896718      -0.98247058       1.99427586
O       -3.40320526       0.20106423       0.45502441
O       -2.54948874       0.30118986       1.24091435
9
Properties=species:S:1:pos:R:3 Energy:=T 39.5935911=T pbc="F F F"
C       -6.86661491      -0.69799198      -0.14464312
O       -5.41236557      -0.70506803      -0.19354578
H       -7.20692722       0.28576142       0.19067949
H       -7.21956878      -1.50067019       0.51112489
H       -7.12265642      -0.88358669      -1.19533892
C       -4.68757981      -0.52213493       0.93282747
O       -4.84789536      -1.11071524       1.95006741
O       -3.48862385       0.36124834       0.50556206
O       -2.55462739       0.32302263       1.20395600
9
Properties=species:S:1:pos:R:3 Energy:=T 39.5935911=T pbc="F F F"
C       -6.86661491      -0.69799198      -0.14464312
O       -5.41236557      -0.70506803      -0.19354578
H       -7.20514782       0.29913363       0.14288794
H       -7.21921269      -1.47329915       0.54339728
H       -7.12633173      -0.93022894      -1.18668387
C       -4.68757981      -0.52213493       0.93282747
O       -4.73084276      -1.21827214       1.89221595
O       -3.62850591       0.55214595       0.51470322
O       -2.66685887       0.62786347       1.16226149
9
Properties=species:S:1:pos:R:3 Energy:=T 39.5935911=T pbc="F F F"
C       -6.86661491      -0.69799198      -0.14464312
O       -5.41236557      -0.70506803      -0.19354578
H       -7.20719033       0.30998183       0.10057685
H       -7.21973499      -1.44680940       0.57137288
H       -7.12644746      -0.97440087      -1.17575986
C       -4.68757981      -0.52213493       0.93282747
O       -4.60136595      -1.30187323       1.82247926
O       -3.83239617       0.74583850       0.62021732
O       -2.91394951       0.95487841       1.30367164
9
Properties=species:S:1:pos:R:3 Energy:=T 39.5935911=T pbc="F F F"
C       -6.86661491      -0.69799198      -0.14464312
O       -5.41236557      -0.70506803      -0.19354578
H       -7.20790962       0.31339259       0.08716528
H       -7.21654567      -1.43735591       0.58193589
H       -7.12618974      -0.98764070      -1.17167167
C       -4.68757981      -0.52213493       0.93282747
O       -4.46339902      -1.35897832       1.74297626
O       -4.04823451       0.88409251       0.76346713
O       -3.21524054       1.18648928       1.52418947
9
Properties=species:S:1:pos:R:3 Energy:=T 39.5935911=T pbc="F F F"
C       -6.86661491      -0.69799198      -0.14464312
O       -5.41236557      -0.70506803      -0.19354578
H       -7.21257366       0.30935159       0.09485095
H       -7.21708630      -1.44794686       0.56975648
H       -7.12094590      -0.97914059      -1.17553011
C       -4.68757981      -0.52213493       0.93282747
O       -4.32113403      -1.38785231       1.65612261
O       -4.28164154       0.97409003       0.91971156
O       -3.51392829       1.32598654       1.72936154
9
Properties=species:S:1:pos:R:3 Energy:=T 39.5935911=T pbc="F F F"
C       -6.86661491      -0.69799198      -0.14464312
O       -5.41236557      -0.70506803      -0.19354578
H       -7.21837813       0.30237538       0.12259612
H       -7.21230240      -1.46677332       0.55386335
H       -7.12210553      -0.95234643      -1.18347302
C       -4.68757981      -0.52213493       0.93282747
O       -4.17889363      -1.38761788       1.56455731
O       -4.53914685       1.00777455       1.10053411
O       -3.87853012       1.38074804       1.99711070
9
Properties=species:S:1:pos:R:3 Energy:=T 39.5935911=T pbc="F F F"
C       -6.86661491      -0.69799198      -0.14464312
O       -5.41236557      -0.70506803      -0.19354578
H       -7.21904384       0.30044236       0.12972669
H       -7.20904324      -1.47097742       0.55013514
H       -7.12040421      -0.94575285      -1.18542991
C       -4.68757981      -0.52213493       0.93282747
O       -4.04099971      -1.35828214       1.47106252
O       -4.71747098       0.99001859       1.24098241
O       -3.91978866       1.37920396       2.01371140
9
Properties=species:S:1:pos:R:3 Energy:=T 39.5935911=T pbc="F F F"
C       -6.86661491      -0.69799198      -0.14464312
O       -5.41236557      -0.70506803      -0.19354578
H       -7.22868436       0.28476373       0.16846170
H       -7.20990803      -1.49699314       0.51848135
H       -7.12155771      -0.90639251      -1.19299002
C       -4.68757981      -0.52213493       0.93282747
O       -3.91164213      -1.30073645       1.37847905
O       -5.00677935       0.90676048       1.43076768
O       -4.51853321       1.24018957       2.44767005
9
Properties=species:S:1:pos:R:3 Energy:=T 39.5935911=T pbc="F F F"
C       -6.86661491      -0.69799198      -0.14464312
O       -5.41236557      -0.70506803      -0.19354578
H       -7.22998156       0.28242808       0.17455776
H       -7.20894233      -1.50005982       0.51460226
H       -7.12195191      -0.89948594      -1.19413093
C       -4.68757981      -0.52213493       0.93282747
O       -3.79475133      -1.21672931       1.28961998
O       -5.17422137       0.78297624       1.59391812
O       -4.50771820       1.19833971       2.47412844
9
Properties=species:S:1:pos:R:3 Energy:=T 39.5935911=T pbc="F F F"
C       -6.86661491      -0.69799198      -0.14464312
O       -5.41236557      -0.70506803      -0.19354578
H       -7.23318863       0.27942703       0.18044627
H       -7.21075670      -1.50929885       0.50448361
H       -7.12279437      -0.89300002      -1.19552647
C       -4.68757981      -0.52213493       0.93282747
O       -3.69387899      -1.10881323       1.20718527
O       -5.36802770       0.58960992       1.75557368
O       -4.86626014       0.85788153       2.79001448
9
Properties=species:S:1:pos:R:3 Energy:=T 39.5935911=T pbc="F F F"
C       -6.86661491      -0.69799198      -0.14464312
O       -5.41236557      -0.70506803      -0.19354578
H       -7.22916197       0.28209701       0.17959757
H       -7.21278826      -1.50445466       0.50644951
H       -7.12443412      -0.89189494      -1.19609520
C       -4.68757981      -0.52213493       0.93282747
O       -3.61209006      -0.98026718       1.13367964
O       -5.46555745       0.40500803       1.88276382
O       -4.85151906       0.81915682       2.80512059
9
Properties=species:S:1:pos:R:3 Energy:=T 39.5935911=T pbc="F F F"
C       -6.86661491      -0.69799198      -0.14464312
O       -5.41236557      -0.70506803      -0.19354578
H       -7.21916155       0.29028132       0.16821200
H       -7.22688651      -1.49029529       0.51756409
H       -7.12606690      -0.89546877      -1.19351893
C       -4.68757981      -0.52213493       0.93282747
O       -3.55186967      -0.83499698       1.07133653
O       -5.57028166       0.15093493       1.99780837
O       -5.03217444       0.40276649       3.02183673
9
Properties=species:S:1:pos:R:3 Energy:=T 39.5935911=T pbc="F F F"
C       -6.86661491      -0.69799198      -0.14464312
O       -5.41236557      -0.70506803      -0.19354578
H       -7.22822335       0.28615335       0.16848296
H       -7.21825413      -1.49260372       0.51740881
H       -7.12517195      -0.90524835      -1.19380122
C       -4.68757981      -0.52213493       0.93282747
O       -3.51504757      -0.67741658       1.02205020
O       -5.60671346      -0.04527078       2.06833425
O       -5.04746610       0.37354983       3.02431252
9
Properties=species:S:1:pos:R:3 Energy:=T 39.5935911=T pbc="F F F"
C       -6.86661491      -0.69799198      -0.14464312
O       -5.41236557      -0.70506803      -0.19354578
H       -7.21658476       0.28086943       0.19269232
H       -7.22752503      -1.50429547       0.49790964
H       -7.12627752      -0.87116730      -1.19686835
C       -4.68757981      -0.52213493       0.93282747
O       -3.50274258      -0.51231398       0.98731819
O       -5.64105405      -0.34495435       2.12412020
O       -5.11669960      -0.16634220       3.17065361
